*SPEF "ieee 1481-1999"
*DESIGN "user_project_wrapper"
*DATE "11:11:11 Fri 11 11, 1111"
*VENDOR "OpenRCX"
*PROGRAM "Parallel Extraction"
*VERSION "1.0"
*DESIGN_FLOW "NAME_SCOPE LOCAL" "PIN_CAP NONE"
*DIVIDER /
*DELIMITER :
*BUS_DELIMITER []
*T_UNIT 1 NS
*C_UNIT 1 PF
*R_UNIT 1 OHM
*L_UNIT 1 HENRY

*NAME_MAP
*1 io_in[0]
*2 io_in[10]
*3 io_in[11]
*4 io_in[12]
*5 io_in[13]
*6 io_in[14]
*7 io_in[15]
*8 io_in[16]
*9 io_in[17]
*10 io_in[18]
*11 io_in[19]
*12 io_in[1]
*13 io_in[20]
*14 io_in[21]
*15 io_in[22]
*16 io_in[23]
*17 io_in[24]
*18 io_in[25]
*19 io_in[26]
*20 io_in[27]
*21 io_in[28]
*22 io_in[29]
*23 io_in[2]
*24 io_in[30]
*25 io_in[31]
*26 io_in[32]
*27 io_in[33]
*28 io_in[34]
*29 io_in[35]
*30 io_in[36]
*31 io_in[37]
*32 io_in[3]
*33 io_in[4]
*34 io_in[5]
*35 io_in[6]
*36 io_in[7]
*37 io_in[8]
*38 io_in[9]
*39 io_oeb[0]
*40 io_oeb[10]
*41 io_oeb[11]
*42 io_oeb[12]
*43 io_oeb[13]
*44 io_oeb[14]
*45 io_oeb[15]
*46 io_oeb[16]
*47 io_oeb[17]
*48 io_oeb[18]
*49 io_oeb[19]
*50 io_oeb[1]
*51 io_oeb[20]
*52 io_oeb[21]
*53 io_oeb[22]
*54 io_oeb[23]
*55 io_oeb[24]
*56 io_oeb[25]
*57 io_oeb[26]
*58 io_oeb[27]
*59 io_oeb[28]
*60 io_oeb[29]
*61 io_oeb[2]
*62 io_oeb[30]
*63 io_oeb[31]
*64 io_oeb[32]
*65 io_oeb[33]
*66 io_oeb[34]
*67 io_oeb[35]
*68 io_oeb[36]
*69 io_oeb[37]
*70 io_oeb[3]
*71 io_oeb[4]
*72 io_oeb[5]
*73 io_oeb[6]
*74 io_oeb[7]
*75 io_oeb[8]
*76 io_oeb[9]
*77 io_out[0]
*78 io_out[10]
*79 io_out[11]
*80 io_out[12]
*81 io_out[13]
*82 io_out[14]
*83 io_out[15]
*84 io_out[16]
*85 io_out[17]
*86 io_out[18]
*87 io_out[19]
*88 io_out[1]
*89 io_out[20]
*90 io_out[21]
*91 io_out[22]
*92 io_out[23]
*93 io_out[24]
*94 io_out[25]
*95 io_out[26]
*96 io_out[27]
*97 io_out[28]
*98 io_out[29]
*99 io_out[2]
*100 io_out[30]
*101 io_out[31]
*102 io_out[32]
*103 io_out[33]
*104 io_out[34]
*105 io_out[35]
*106 io_out[36]
*107 io_out[37]
*108 io_out[3]
*109 io_out[4]
*110 io_out[5]
*111 io_out[6]
*112 io_out[7]
*113 io_out[8]
*114 io_out[9]
*115 la_data_in[0]
*116 la_data_in[10]
*117 la_data_in[11]
*118 la_data_in[12]
*119 la_data_in[13]
*120 la_data_in[14]
*121 la_data_in[15]
*122 la_data_in[16]
*123 la_data_in[17]
*124 la_data_in[18]
*125 la_data_in[19]
*126 la_data_in[1]
*127 la_data_in[20]
*128 la_data_in[21]
*129 la_data_in[22]
*130 la_data_in[23]
*131 la_data_in[24]
*132 la_data_in[25]
*133 la_data_in[26]
*134 la_data_in[27]
*135 la_data_in[28]
*136 la_data_in[29]
*137 la_data_in[2]
*138 la_data_in[30]
*139 la_data_in[31]
*140 la_data_in[32]
*141 la_data_in[33]
*142 la_data_in[34]
*143 la_data_in[35]
*144 la_data_in[36]
*145 la_data_in[37]
*146 la_data_in[38]
*147 la_data_in[39]
*148 la_data_in[3]
*149 la_data_in[40]
*150 la_data_in[41]
*151 la_data_in[42]
*152 la_data_in[43]
*153 la_data_in[44]
*154 la_data_in[45]
*155 la_data_in[46]
*156 la_data_in[47]
*157 la_data_in[48]
*158 la_data_in[49]
*159 la_data_in[4]
*160 la_data_in[50]
*161 la_data_in[51]
*162 la_data_in[52]
*163 la_data_in[53]
*164 la_data_in[54]
*165 la_data_in[55]
*166 la_data_in[56]
*167 la_data_in[57]
*168 la_data_in[58]
*169 la_data_in[59]
*170 la_data_in[5]
*171 la_data_in[60]
*172 la_data_in[61]
*173 la_data_in[62]
*174 la_data_in[63]
*175 la_data_in[6]
*176 la_data_in[7]
*177 la_data_in[8]
*178 la_data_in[9]
*179 la_data_out[0]
*180 la_data_out[10]
*181 la_data_out[11]
*182 la_data_out[12]
*183 la_data_out[13]
*184 la_data_out[14]
*185 la_data_out[15]
*186 la_data_out[16]
*187 la_data_out[17]
*188 la_data_out[18]
*189 la_data_out[19]
*190 la_data_out[1]
*191 la_data_out[20]
*192 la_data_out[21]
*193 la_data_out[22]
*194 la_data_out[23]
*195 la_data_out[24]
*196 la_data_out[25]
*197 la_data_out[26]
*198 la_data_out[27]
*199 la_data_out[28]
*200 la_data_out[29]
*201 la_data_out[2]
*202 la_data_out[30]
*203 la_data_out[31]
*204 la_data_out[32]
*205 la_data_out[33]
*206 la_data_out[34]
*207 la_data_out[35]
*208 la_data_out[36]
*209 la_data_out[37]
*210 la_data_out[38]
*211 la_data_out[39]
*212 la_data_out[3]
*213 la_data_out[40]
*214 la_data_out[41]
*215 la_data_out[42]
*216 la_data_out[43]
*217 la_data_out[44]
*218 la_data_out[45]
*219 la_data_out[46]
*220 la_data_out[47]
*221 la_data_out[48]
*222 la_data_out[49]
*223 la_data_out[4]
*224 la_data_out[50]
*225 la_data_out[51]
*226 la_data_out[52]
*227 la_data_out[53]
*228 la_data_out[54]
*229 la_data_out[55]
*230 la_data_out[56]
*231 la_data_out[57]
*232 la_data_out[58]
*233 la_data_out[59]
*234 la_data_out[5]
*235 la_data_out[60]
*236 la_data_out[61]
*237 la_data_out[62]
*238 la_data_out[63]
*239 la_data_out[6]
*240 la_data_out[7]
*241 la_data_out[8]
*242 la_data_out[9]
*243 la_oenb[0]
*244 la_oenb[10]
*245 la_oenb[11]
*246 la_oenb[12]
*247 la_oenb[13]
*248 la_oenb[14]
*249 la_oenb[15]
*250 la_oenb[16]
*251 la_oenb[17]
*252 la_oenb[18]
*253 la_oenb[19]
*254 la_oenb[1]
*255 la_oenb[20]
*256 la_oenb[21]
*257 la_oenb[22]
*258 la_oenb[23]
*259 la_oenb[24]
*260 la_oenb[25]
*261 la_oenb[26]
*262 la_oenb[27]
*263 la_oenb[28]
*264 la_oenb[29]
*265 la_oenb[2]
*266 la_oenb[30]
*267 la_oenb[31]
*268 la_oenb[32]
*269 la_oenb[33]
*270 la_oenb[34]
*271 la_oenb[35]
*272 la_oenb[36]
*273 la_oenb[37]
*274 la_oenb[38]
*275 la_oenb[39]
*276 la_oenb[3]
*277 la_oenb[40]
*278 la_oenb[41]
*279 la_oenb[42]
*280 la_oenb[43]
*281 la_oenb[44]
*282 la_oenb[45]
*283 la_oenb[46]
*284 la_oenb[47]
*285 la_oenb[48]
*286 la_oenb[49]
*287 la_oenb[4]
*288 la_oenb[50]
*289 la_oenb[51]
*290 la_oenb[52]
*291 la_oenb[53]
*292 la_oenb[54]
*293 la_oenb[55]
*294 la_oenb[56]
*295 la_oenb[57]
*296 la_oenb[58]
*297 la_oenb[59]
*298 la_oenb[5]
*299 la_oenb[60]
*300 la_oenb[61]
*301 la_oenb[62]
*302 la_oenb[63]
*303 la_oenb[6]
*304 la_oenb[7]
*305 la_oenb[8]
*306 la_oenb[9]
*307 user_clock2
*308 user_irq[0]
*309 user_irq[1]
*310 user_irq[2]
*313 wb_clk_i
*314 wb_rst_i
*315 wbs_ack_o
*316 wbs_adr_i[0]
*317 wbs_adr_i[10]
*318 wbs_adr_i[11]
*319 wbs_adr_i[12]
*320 wbs_adr_i[13]
*321 wbs_adr_i[14]
*322 wbs_adr_i[15]
*323 wbs_adr_i[16]
*324 wbs_adr_i[17]
*325 wbs_adr_i[18]
*326 wbs_adr_i[19]
*327 wbs_adr_i[1]
*328 wbs_adr_i[20]
*329 wbs_adr_i[21]
*330 wbs_adr_i[22]
*331 wbs_adr_i[23]
*332 wbs_adr_i[24]
*333 wbs_adr_i[25]
*334 wbs_adr_i[26]
*335 wbs_adr_i[27]
*336 wbs_adr_i[28]
*337 wbs_adr_i[29]
*338 wbs_adr_i[2]
*339 wbs_adr_i[30]
*340 wbs_adr_i[31]
*341 wbs_adr_i[3]
*342 wbs_adr_i[4]
*343 wbs_adr_i[5]
*344 wbs_adr_i[6]
*345 wbs_adr_i[7]
*346 wbs_adr_i[8]
*347 wbs_adr_i[9]
*348 wbs_cyc_i
*349 wbs_dat_i[0]
*350 wbs_dat_i[10]
*351 wbs_dat_i[11]
*352 wbs_dat_i[12]
*353 wbs_dat_i[13]
*354 wbs_dat_i[14]
*355 wbs_dat_i[15]
*356 wbs_dat_i[16]
*357 wbs_dat_i[17]
*358 wbs_dat_i[18]
*359 wbs_dat_i[19]
*360 wbs_dat_i[1]
*361 wbs_dat_i[20]
*362 wbs_dat_i[21]
*363 wbs_dat_i[22]
*364 wbs_dat_i[23]
*365 wbs_dat_i[24]
*366 wbs_dat_i[25]
*367 wbs_dat_i[26]
*368 wbs_dat_i[27]
*369 wbs_dat_i[28]
*370 wbs_dat_i[29]
*371 wbs_dat_i[2]
*372 wbs_dat_i[30]
*373 wbs_dat_i[31]
*374 wbs_dat_i[3]
*375 wbs_dat_i[4]
*376 wbs_dat_i[5]
*377 wbs_dat_i[6]
*378 wbs_dat_i[7]
*379 wbs_dat_i[8]
*380 wbs_dat_i[9]
*381 wbs_dat_o[0]
*382 wbs_dat_o[10]
*383 wbs_dat_o[11]
*384 wbs_dat_o[12]
*385 wbs_dat_o[13]
*386 wbs_dat_o[14]
*387 wbs_dat_o[15]
*388 wbs_dat_o[16]
*389 wbs_dat_o[17]
*390 wbs_dat_o[18]
*391 wbs_dat_o[19]
*392 wbs_dat_o[1]
*393 wbs_dat_o[20]
*394 wbs_dat_o[21]
*395 wbs_dat_o[22]
*396 wbs_dat_o[23]
*397 wbs_dat_o[24]
*398 wbs_dat_o[25]
*399 wbs_dat_o[26]
*400 wbs_dat_o[27]
*401 wbs_dat_o[28]
*402 wbs_dat_o[29]
*403 wbs_dat_o[2]
*404 wbs_dat_o[30]
*405 wbs_dat_o[31]
*406 wbs_dat_o[3]
*407 wbs_dat_o[4]
*408 wbs_dat_o[5]
*409 wbs_dat_o[6]
*410 wbs_dat_o[7]
*411 wbs_dat_o[8]
*412 wbs_dat_o[9]
*413 wbs_sel_i[0]
*414 wbs_sel_i[1]
*415 wbs_sel_i[2]
*416 wbs_sel_i[3]
*417 wbs_stb_i
*418 wbs_we_i
*419 mprj

*PORTS
io_in[0] I
io_in[10] I
io_in[11] I
io_in[12] I
io_in[13] I
io_in[14] I
io_in[15] I
io_in[16] I
io_in[17] I
io_in[18] I
io_in[19] I
io_in[1] I
io_in[20] I
io_in[21] I
io_in[22] I
io_in[23] I
io_in[24] I
io_in[25] I
io_in[26] I
io_in[27] I
io_in[28] I
io_in[29] I
io_in[2] I
io_in[30] I
io_in[31] I
io_in[32] I
io_in[33] I
io_in[34] I
io_in[35] I
io_in[36] I
io_in[37] I
io_in[3] I
io_in[4] I
io_in[5] I
io_in[6] I
io_in[7] I
io_in[8] I
io_in[9] I
io_oeb[0] O
io_oeb[10] O
io_oeb[11] O
io_oeb[12] O
io_oeb[13] O
io_oeb[14] O
io_oeb[15] O
io_oeb[16] O
io_oeb[17] O
io_oeb[18] O
io_oeb[19] O
io_oeb[1] O
io_oeb[20] O
io_oeb[21] O
io_oeb[22] O
io_oeb[23] O
io_oeb[24] O
io_oeb[25] O
io_oeb[26] O
io_oeb[27] O
io_oeb[28] O
io_oeb[29] O
io_oeb[2] O
io_oeb[30] O
io_oeb[31] O
io_oeb[32] O
io_oeb[33] O
io_oeb[34] O
io_oeb[35] O
io_oeb[36] O
io_oeb[37] O
io_oeb[3] O
io_oeb[4] O
io_oeb[5] O
io_oeb[6] O
io_oeb[7] O
io_oeb[8] O
io_oeb[9] O
io_out[0] O
io_out[10] O
io_out[11] O
io_out[12] O
io_out[13] O
io_out[14] O
io_out[15] O
io_out[16] O
io_out[17] O
io_out[18] O
io_out[19] O
io_out[1] O
io_out[20] O
io_out[21] O
io_out[22] O
io_out[23] O
io_out[24] O
io_out[25] O
io_out[26] O
io_out[27] O
io_out[28] O
io_out[29] O
io_out[2] O
io_out[30] O
io_out[31] O
io_out[32] O
io_out[33] O
io_out[34] O
io_out[35] O
io_out[36] O
io_out[37] O
io_out[3] O
io_out[4] O
io_out[5] O
io_out[6] O
io_out[7] O
io_out[8] O
io_out[9] O
la_data_in[0] I
la_data_in[10] I
la_data_in[11] I
la_data_in[12] I
la_data_in[13] I
la_data_in[14] I
la_data_in[15] I
la_data_in[16] I
la_data_in[17] I
la_data_in[18] I
la_data_in[19] I
la_data_in[1] I
la_data_in[20] I
la_data_in[21] I
la_data_in[22] I
la_data_in[23] I
la_data_in[24] I
la_data_in[25] I
la_data_in[26] I
la_data_in[27] I
la_data_in[28] I
la_data_in[29] I
la_data_in[2] I
la_data_in[30] I
la_data_in[31] I
la_data_in[32] I
la_data_in[33] I
la_data_in[34] I
la_data_in[35] I
la_data_in[36] I
la_data_in[37] I
la_data_in[38] I
la_data_in[39] I
la_data_in[3] I
la_data_in[40] I
la_data_in[41] I
la_data_in[42] I
la_data_in[43] I
la_data_in[44] I
la_data_in[45] I
la_data_in[46] I
la_data_in[47] I
la_data_in[48] I
la_data_in[49] I
la_data_in[4] I
la_data_in[50] I
la_data_in[51] I
la_data_in[52] I
la_data_in[53] I
la_data_in[54] I
la_data_in[55] I
la_data_in[56] I
la_data_in[57] I
la_data_in[58] I
la_data_in[59] I
la_data_in[5] I
la_data_in[60] I
la_data_in[61] I
la_data_in[62] I
la_data_in[63] I
la_data_in[6] I
la_data_in[7] I
la_data_in[8] I
la_data_in[9] I
la_data_out[0] O
la_data_out[10] O
la_data_out[11] O
la_data_out[12] O
la_data_out[13] O
la_data_out[14] O
la_data_out[15] O
la_data_out[16] O
la_data_out[17] O
la_data_out[18] O
la_data_out[19] O
la_data_out[1] O
la_data_out[20] O
la_data_out[21] O
la_data_out[22] O
la_data_out[23] O
la_data_out[24] O
la_data_out[25] O
la_data_out[26] O
la_data_out[27] O
la_data_out[28] O
la_data_out[29] O
la_data_out[2] O
la_data_out[30] O
la_data_out[31] O
la_data_out[32] O
la_data_out[33] O
la_data_out[34] O
la_data_out[35] O
la_data_out[36] O
la_data_out[37] O
la_data_out[38] O
la_data_out[39] O
la_data_out[3] O
la_data_out[40] O
la_data_out[41] O
la_data_out[42] O
la_data_out[43] O
la_data_out[44] O
la_data_out[45] O
la_data_out[46] O
la_data_out[47] O
la_data_out[48] O
la_data_out[49] O
la_data_out[4] O
la_data_out[50] O
la_data_out[51] O
la_data_out[52] O
la_data_out[53] O
la_data_out[54] O
la_data_out[55] O
la_data_out[56] O
la_data_out[57] O
la_data_out[58] O
la_data_out[59] O
la_data_out[5] O
la_data_out[60] O
la_data_out[61] O
la_data_out[62] O
la_data_out[63] O
la_data_out[6] O
la_data_out[7] O
la_data_out[8] O
la_data_out[9] O
la_oenb[0] I
la_oenb[10] I
la_oenb[11] I
la_oenb[12] I
la_oenb[13] I
la_oenb[14] I
la_oenb[15] I
la_oenb[16] I
la_oenb[17] I
la_oenb[18] I
la_oenb[19] I
la_oenb[1] I
la_oenb[20] I
la_oenb[21] I
la_oenb[22] I
la_oenb[23] I
la_oenb[24] I
la_oenb[25] I
la_oenb[26] I
la_oenb[27] I
la_oenb[28] I
la_oenb[29] I
la_oenb[2] I
la_oenb[30] I
la_oenb[31] I
la_oenb[32] I
la_oenb[33] I
la_oenb[34] I
la_oenb[35] I
la_oenb[36] I
la_oenb[37] I
la_oenb[38] I
la_oenb[39] I
la_oenb[3] I
la_oenb[40] I
la_oenb[41] I
la_oenb[42] I
la_oenb[43] I
la_oenb[44] I
la_oenb[45] I
la_oenb[46] I
la_oenb[47] I
la_oenb[48] I
la_oenb[49] I
la_oenb[4] I
la_oenb[50] I
la_oenb[51] I
la_oenb[52] I
la_oenb[53] I
la_oenb[54] I
la_oenb[55] I
la_oenb[56] I
la_oenb[57] I
la_oenb[58] I
la_oenb[59] I
la_oenb[5] I
la_oenb[60] I
la_oenb[61] I
la_oenb[62] I
la_oenb[63] I
la_oenb[6] I
la_oenb[7] I
la_oenb[8] I
la_oenb[9] I
user_clock2 I
user_irq[0] O
user_irq[1] O
user_irq[2] O
wb_clk_i I
wb_rst_i I
wbs_ack_o O
wbs_adr_i[0] I
wbs_adr_i[10] I
wbs_adr_i[11] I
wbs_adr_i[12] I
wbs_adr_i[13] I
wbs_adr_i[14] I
wbs_adr_i[15] I
wbs_adr_i[16] I
wbs_adr_i[17] I
wbs_adr_i[18] I
wbs_adr_i[19] I
wbs_adr_i[1] I
wbs_adr_i[20] I
wbs_adr_i[21] I
wbs_adr_i[22] I
wbs_adr_i[23] I
wbs_adr_i[24] I
wbs_adr_i[25] I
wbs_adr_i[26] I
wbs_adr_i[27] I
wbs_adr_i[28] I
wbs_adr_i[29] I
wbs_adr_i[2] I
wbs_adr_i[30] I
wbs_adr_i[31] I
wbs_adr_i[3] I
wbs_adr_i[4] I
wbs_adr_i[5] I
wbs_adr_i[6] I
wbs_adr_i[7] I
wbs_adr_i[8] I
wbs_adr_i[9] I
wbs_cyc_i I
wbs_dat_i[0] I
wbs_dat_i[10] I
wbs_dat_i[11] I
wbs_dat_i[12] I
wbs_dat_i[13] I
wbs_dat_i[14] I
wbs_dat_i[15] I
wbs_dat_i[16] I
wbs_dat_i[17] I
wbs_dat_i[18] I
wbs_dat_i[19] I
wbs_dat_i[1] I
wbs_dat_i[20] I
wbs_dat_i[21] I
wbs_dat_i[22] I
wbs_dat_i[23] I
wbs_dat_i[24] I
wbs_dat_i[25] I
wbs_dat_i[26] I
wbs_dat_i[27] I
wbs_dat_i[28] I
wbs_dat_i[29] I
wbs_dat_i[2] I
wbs_dat_i[30] I
wbs_dat_i[31] I
wbs_dat_i[3] I
wbs_dat_i[4] I
wbs_dat_i[5] I
wbs_dat_i[6] I
wbs_dat_i[7] I
wbs_dat_i[8] I
wbs_dat_i[9] I
wbs_dat_o[0] O
wbs_dat_o[10] O
wbs_dat_o[11] O
wbs_dat_o[12] O
wbs_dat_o[13] O
wbs_dat_o[14] O
wbs_dat_o[15] O
wbs_dat_o[16] O
wbs_dat_o[17] O
wbs_dat_o[18] O
wbs_dat_o[19] O
wbs_dat_o[1] O
wbs_dat_o[20] O
wbs_dat_o[21] O
wbs_dat_o[22] O
wbs_dat_o[23] O
wbs_dat_o[24] O
wbs_dat_o[25] O
wbs_dat_o[26] O
wbs_dat_o[27] O
wbs_dat_o[28] O
wbs_dat_o[29] O
wbs_dat_o[2] O
wbs_dat_o[30] O
wbs_dat_o[31] O
wbs_dat_o[3] O
wbs_dat_o[4] O
wbs_dat_o[5] O
wbs_dat_o[6] O
wbs_dat_o[7] O
wbs_dat_o[8] O
wbs_dat_o[9] O
wbs_sel_i[0] I
wbs_sel_i[1] I
wbs_sel_i[2] I
wbs_sel_i[3] I
wbs_stb_i I
wbs_we_i I

*D_NET *1 0.028835
*CONN
*P io_in[0] I
*I *419:io_in[0] I *D user_proj_example
*CAP
1 io_in[0] 0.0121664
2 *419:io_in[0] 0.00225116
3 *1:5 0.0144175
4 *419:io_in[0] la_data_out[56] 0
*RES
1 io_in[0] *1:5 97.425 
2 *1:5 *419:io_in[0] 26.775 
*END

*D_NET *12 0.0405908
*CONN
*P io_in[1] I
*I *419:io_in[1] I *D user_proj_example
*CAP
1 io_in[1] 0.00111227
2 *419:io_in[1] 0.0117018
3 *12:11 0.0117018
4 *12:9 0.00748136
5 *12:7 0.00859363
*RES
1 io_in[1] *12:7 12.825 
2 *12:7 *12:9 60.93 
3 *12:9 *12:11 4.5 
4 *12:11 *419:io_in[1] 94.185 
*END

*D_NET *23 0.0767178
*CONN
*P io_in[2] I
*I *419:io_in[2] I *D user_proj_example
*CAP
1 io_in[2] 0.0121833
2 *419:io_in[2] 0.000630759
3 *23:9 0.00762182
4 *23:7 0.00699106
5 *23:5 0.0121833
6 *23:9 *32:9 0.00643317
7 *23:9 *50:9 0.0292491
8 *23:9 *70:9 0.00142523
*RES
1 io_in[2] *23:5 97.425 
2 *23:5 *23:7 4.5 
3 *23:7 *23:9 109.89 
4 *23:9 *419:io_in[2] 9.585 
*END

*D_NET *24 0.179528
*CONN
*P io_in[30] I
*I *419:io_in[8] I *D user_proj_example
*CAP
1 io_in[30] 0.00158533
2 *419:io_in[8] 0.00099972
3 *24:9 0.0251972
4 *24:7 0.0257828
5 *24:9 *100:9 0.125963
*RES
1 io_in[30] *24:7 16.065 
2 *24:7 *24:9 349.47 
3 *24:9 *419:io_in[8] 11.745 
*END

*D_NET *25 0.225568
*CONN
*P io_in[31] I
*I *419:io_in[9] I *D user_proj_example
*CAP
1 io_in[31] 0.000773366
2 *419:io_in[9] 0.0017609
3 *25:9 0.00847375
4 *25:7 0.00748622
5 *25:9 *62:9 0.114068
6 *25:9 *63:9 0.0930062
*RES
1 io_in[31] *25:7 10.845 
2 *25:7 *25:9 305.19 
3 *25:9 *419:io_in[9] 16.965 
*END

*D_NET *26 0.179766
*CONN
*P io_in[32] I
*I *419:io_in[10] I *D user_proj_example
*CAP
1 io_in[32] 0.000827804
2 *419:io_in[10] 0.00173467
3 *26:9 0.00943222
4 *26:7 0.00852535
5 *26:7 *104:7 1.21105e-05
6 *26:9 *27:9 0.0600675
7 *26:9 *28:9 0.00294644
8 *26:9 *63:9 0.0962203
*RES
1 io_in[32] *26:7 11.205 
2 *26:7 *26:9 261.09 
3 *26:9 *419:io_in[10] 16.605 
*END

*D_NET *27 0.153585
*CONN
*P io_in[33] I
*I *419:io_in[11] I *D user_proj_example
*CAP
1 io_in[33] 0.000871943
2 *419:io_in[11] 0.00174695
3 *27:9 0.00536032
4 *27:7 0.00448532
5 *27:9 *28:9 9.57064e-05
6 *27:9 *103:9 0.0722804
7 *27:9 *104:9 0.00867677
8 *26:9 *27:9 0.0600675
*RES
1 io_in[33] *27:7 11.385 
2 *27:7 *27:9 216.63 
3 *27:9 *419:io_in[11] 16.425 
*END

*D_NET *28 0.0876131
*CONN
*P io_in[34] I
*I *419:io_in[12] I *D user_proj_example
*CAP
1 io_in[34] 0.000751787
2 *419:io_in[12] 0.00186709
3 *28:9 0.0130193
4 *28:7 0.011904
5 *28:9 *63:9 0.00263363
6 *28:9 *104:9 0.0543953
7 *26:9 *28:9 0.00294644
8 *27:9 *28:9 9.57064e-05
*RES
1 io_in[34] *28:7 10.665 
2 *28:7 *28:9 172.35 
3 *28:9 *419:io_in[12] 17.145 
*END

*D_NET *29 0.0672216
*CONN
*P io_in[35] I
*I *419:io_in[13] I *D user_proj_example
*CAP
1 io_in[35] 0.000828799
2 *419:io_in[13] 0.00175624
3 *29:9 0.00909448
4 *29:7 0.00816705
5 *29:9 *30:9 0.00635959
6 *29:9 *67:9 0.00561649
7 *29:9 *103:9 0.00198615
8 *29:9 *104:9 0.0334128
*RES
1 io_in[35] *29:7 11.025 
2 *29:7 *29:9 128.07 
3 *29:9 *419:io_in[13] 16.785 
*END

*D_NET *30 0.0630488
*CONN
*P io_in[36] I
*I *419:io_in[14] I *D user_proj_example
*CAP
1 io_in[36] 0.000790293
2 *419:io_in[14] 0.0017609
3 *30:9 0.00412266
4 *30:7 0.00315205
5 *30:9 *67:9 0.0246128
6 *30:9 *68:9 0.00354989
7 *30:9 *106:9 0.0187006
8 *29:9 *30:9 0.00635959
*RES
1 io_in[36] *30:7 10.845 
2 *30:7 *30:9 83.79 
3 *30:9 *419:io_in[14] 16.965 
*END

*D_NET *31 0.0193676
*CONN
*P io_in[37] I
*I *419:io_in[15] I *D user_proj_example
*CAP
1 io_in[37] 0.00208928
2 *419:io_in[15] 0.0075945
3 *31:7 0.00968378
*RES
1 io_in[37] *31:7 19.845 
2 *31:7 *419:io_in[15] 47.655 
*END

*D_NET *32 0.146122
*CONN
*P io_in[3] I
*I *419:io_in[3] I *D user_proj_example
*CAP
1 io_in[3] 0.0121401
2 *419:io_in[3] 0.000707771
3 *32:9 0.00124512
4 *32:7 0.000537351
5 *32:5 0.0121401
6 *32:9 *34:9 0.0125452
7 *32:9 *50:9 0.00349945
8 *32:9 *61:9 0.0488774
9 *32:9 *70:9 0.046818
10 *32:9 *71:9 0.00117819
11 *23:9 *32:9 0.00643317
*RES
1 io_in[3] *32:5 97.065 
2 *32:5 *32:7 4.5 
3 *32:7 *32:9 158.49 
4 *32:9 *419:io_in[3] 9.945 
*END

*D_NET *33 0.130877
*CONN
*P io_in[4] I
*I *419:io_in[4] I *D user_proj_example
*CAP
1 io_in[4] 0.0122341
2 *419:io_in[4] 0.000630759
3 *33:9 0.0137321
4 *33:7 0.0131013
5 *33:5 0.0122341
6 *33:9 *36:9 0.0064414
7 *33:9 *70:9 0.0684572
8 *33:9 *72:9 0.00404571
*RES
1 io_in[4] *33:5 97.425 
2 *33:5 *33:7 4.5 
3 *33:7 *33:9 207.09 
4 *33:9 *419:io_in[4] 9.585 
*END

*D_NET *34 0.220883
*CONN
*P io_in[5] I
*I *419:io_in[5] I *D user_proj_example
*CAP
1 io_in[5] 0.0121355
2 *419:io_in[5] 0.000904899
3 *34:9 0.00390146
4 *34:7 0.00299656
5 *34:5 0.0121355
6 *34:9 *70:9 0.00218003
7 *34:9 *71:9 0.0880965
8 *34:9 *72:9 0.0859871
9 *32:9 *34:9 0.0125452
*RES
1 io_in[5] *34:5 96.885 
2 *34:5 *34:7 4.5 
3 *34:7 *34:9 255.69 
4 *34:9 *419:io_in[5] 10.125 
*END

*D_NET *35 0.100024
*CONN
*P io_in[6] I
*I *419:io_in[6] I *D user_proj_example
*CAP
1 io_in[6] 0.00111227
2 *419:io_in[6] 0.0117525
3 *35:11 0.0117525
4 *35:9 0.0371474
5 *35:7 0.0382596
*RES
1 io_in[6] *35:7 12.825 
2 *35:7 *35:9 303.93 
3 *35:9 *35:11 4.5 
4 *35:11 *419:io_in[6] 94.185 
*END

*D_NET *36 0.26267
*CONN
*P io_in[7] I
*I *419:io_in[7] I *D user_proj_example
*CAP
1 io_in[7] 0.0122632
2 *419:io_in[7] 0.000669265
3 *36:9 0.0121918
4 *36:7 0.0115225
5 *36:5 0.0122632
6 *36:9 *72:9 0.0819959
7 *36:9 *74:9 0.125323
8 *33:9 *36:9 0.0064414
*RES
1 io_in[7] *36:5 97.245 
2 *36:5 *36:7 4.5 
3 *36:7 *36:9 352.89 
4 *36:9 *419:io_in[7] 9.765 
*END

*D_NET *39 0.0389745
*CONN
*P io_oeb[0] O
*I *419:io_oeb[0] O *D user_proj_example
*CAP
1 io_oeb[0] 0.0121664
2 *419:io_oeb[0] 0.000630759
3 *39:11 0.0170883
4 *39:7 0.00555272
5 *39:11 *77:11 0.00303574
6 *39:11 *88:9 0.000500508
*RES
1 *419:io_oeb[0] *39:7 9.585 
2 *39:7 *39:11 49.41 
3 *39:11 io_oeb[0] 97.425 
*END

*D_NET *50 0.0893041
*CONN
*P io_oeb[1] O
*I *419:io_oeb[1] O *D user_proj_example
*CAP
1 io_oeb[1] 0.0121617
2 *419:io_oeb[1] 0.000669265
3 *50:11 0.0121617
4 *50:9 0.00207707
5 *50:7 0.00274634
6 *50:9 *61:9 0.00406125
7 *50:9 *88:9 0.0226781
8 *23:9 *50:9 0.0292491
9 *32:9 *50:9 0.00349945
*RES
1 *419:io_oeb[1] *50:7 9.765 
2 *50:7 *50:9 93.69 
3 *50:9 *50:11 4.5 
4 *50:11 io_oeb[1] 97.245 
*END

*D_NET *61 0.107154
*CONN
*P io_oeb[2] O
*I *419:io_oeb[2] O *D user_proj_example
*CAP
1 io_oeb[2] 0.0121016
2 *419:io_oeb[2] 0.000746277
3 *61:11 0.0121016
4 *61:9 0.00318183
5 *61:7 0.00392811
6 *61:9 *71:9 0.0060595
7 *61:9 *108:9 0.0160963
8 *32:9 *61:9 0.0488774
9 *50:9 *61:9 0.00406125
*RES
1 *419:io_oeb[2] *61:7 10.125 
2 *61:7 *61:9 142.29 
3 *61:9 *61:11 4.5 
4 *61:11 io_oeb[2] 96.885 
*END

*D_NET *62 0.163572
*CONN
*P io_oeb[30] O
*I *419:io_oeb[8] O *D user_proj_example
*CAP
1 io_oeb[30] 0.000751787
2 *419:io_oeb[8] 0.00178248
3 *62:9 0.0229693
4 *62:7 0.024
5 *25:9 *62:9 0.114068
*RES
1 *419:io_oeb[8] *62:7 17.145 
2 *62:7 *62:9 319.95 
3 *62:9 io_oeb[30] 10.665 
*END

*D_NET *63 0.206674
*CONN
*P io_oeb[31] O
*I *419:io_oeb[9] O *D user_proj_example
*CAP
1 io_oeb[31] 0.000811857
2 *419:io_oeb[9] 0.00175625
3 *63:9 0.00565068
4 *63:7 0.00659508
5 *25:9 *63:9 0.0930062
6 *26:9 *63:9 0.0962203
7 *28:9 *63:9 0.00263363
*RES
1 *419:io_oeb[9] *63:7 16.785 
2 *63:7 *63:9 275.67 
3 *63:9 io_oeb[31] 11.025 
*END

*D_NET *64 0.114968
*CONN
*P io_oeb[32] O
*I *419:io_oeb[10] O *D user_proj_example
*CAP
1 io_oeb[32] 0.00201459
2 *419:io_oeb[10] 0.000536771
3 *64:17 0.0141107
4 *64:15 0.0126176
5 *64:9 0.00872662
6 *64:7 0.00874189
7 *64:17 *65:9 0.00150142
8 *64:17 *66:9 0.000900973
9 *64:17 *102:9 0.0658177
*RES
1 *419:io_oeb[10] *64:7 7.965 
2 *64:7 *64:9 45.63 
3 *64:9 *64:15 12.15 
4 *64:15 *64:17 185.85 
5 *64:17 io_oeb[32] 16.785 
*END

*D_NET *65 0.0770565
*CONN
*P io_oeb[33] O
*I *419:io_oeb[11] O *D user_proj_example
*CAP
1 io_oeb[33] 0.00155148
2 *419:io_oeb[11] 0.00105049
3 *65:9 0.0144766
4 *65:7 0.0139756
5 *65:9 *66:9 0.0302781
6 *65:9 *101:9 0.00536558
7 *65:9 *102:9 0.00885709
8 *64:17 *65:9 0.00150142
*RES
1 *419:io_oeb[11] *65:7 11.745 
2 *65:7 *65:9 187.29 
3 *65:9 io_oeb[33] 16.065 
*END

*D_NET *66 0.0815953
*CONN
*P io_oeb[34] O
*I *419:io_oeb[12] O *D user_proj_example
*CAP
1 io_oeb[34] 0.00188804
2 *419:io_oeb[12] 0.000995052
3 *66:9 0.010508
4 *66:7 0.00961498
5 *66:9 *105:9 0.0274102
6 *64:17 *66:9 0.000900973
7 *65:9 *66:9 0.0302781
*RES
1 *419:io_oeb[12] *66:7 11.565 
2 *66:7 *66:9 142.83 
3 *66:9 io_oeb[34] 16.245 
*END

*D_NET *67 0.0511925
*CONN
*P io_oeb[35] O
*I *419:io_oeb[13] O *D user_proj_example
*CAP
1 io_oeb[35] 0.000751787
2 *419:io_oeb[13] 0.00181634
3 *67:9 0.00711097
4 *67:7 0.00817552
5 *67:9 *104:9 0.00310859
6 *29:9 *67:9 0.00561649
7 *30:9 *67:9 0.0246128
*RES
1 *419:io_oeb[13] *67:7 17.145 
2 *67:7 *67:9 98.55 
3 *67:9 io_oeb[35] 10.665 
*END

*D_NET *68 0.0226748
*CONN
*P io_oeb[36] O
*I *419:io_oeb[14] O *D user_proj_example
*CAP
1 io_oeb[36] 0.000751787
2 *419:io_oeb[14] 0.0017825
3 *68:9 0.00560642
4 *68:7 0.00663713
5 *68:9 *106:9 0.00434704
6 *30:9 *68:9 0.00354989
*RES
1 *419:io_oeb[14] *68:7 17.145 
2 *68:7 *68:9 54.27 
3 *68:9 io_oeb[36] 10.665 
*END

*D_NET *69 0.00756143
*CONN
*P io_oeb[37] O
*I *419:io_oeb[15] O *D user_proj_example
*CAP
1 io_oeb[37] 0.00378071
2 *419:io_oeb[15] 0.00378071
*RES
1 *419:io_oeb[15] io_oeb[37] 37.8 
*END

*D_NET *70 0.173337
*CONN
*P io_oeb[3] O
*I *419:io_oeb[3] O *D user_proj_example
*CAP
1 io_oeb[3] 0.0121955
2 *419:io_oeb[3] 0.000669265
3 *70:11 0.0121955
4 *70:9 0.00158042
5 *70:7 0.00224968
6 *70:9 *72:9 0.0255658
7 *23:9 *70:9 0.00142523
8 *32:9 *70:9 0.046818
9 *33:9 *70:9 0.0684572
10 *34:9 *70:9 0.00218003
*RES
1 *419:io_oeb[3] *70:7 9.765 
2 *70:7 *70:9 190.89 
3 *70:9 *70:11 4.5 
4 *70:11 io_oeb[3] 97.245 
*END

*D_NET *71 0.176609
*CONN
*P io_oeb[4] O
*I *419:io_oeb[4] O *D user_proj_example
*CAP
1 io_oeb[4] 0.012097
2 *419:io_oeb[4] 0.000784784
3 *71:11 0.012097
4 *71:9 0.0096434
5 *71:7 0.0104282
6 *71:9 *108:9 0.0362245
7 *32:9 *71:9 0.00117819
8 *34:9 *71:9 0.0880965
9 *61:9 *71:9 0.0060595
*RES
1 *419:io_oeb[4] *71:7 10.305 
2 *71:7 *71:9 239.49 
3 *71:9 *71:11 4.5 
4 *71:11 io_oeb[4] 96.705 
*END

*D_NET *72 0.234097
*CONN
*P io_oeb[5] O
*I *419:io_oeb[5] O *D user_proj_example
*CAP
1 io_oeb[5] 0.0121909
2 *419:io_oeb[5] 0.000707771
3 *72:11 0.0121909
4 *72:9 0.0053526
5 *72:7 0.00606037
6 *33:9 *72:9 0.00404571
7 *34:9 *72:9 0.0859871
8 *36:9 *72:9 0.0819959
9 *70:9 *72:9 0.0255658
*RES
1 *419:io_oeb[5] *72:7 9.945 
2 *72:7 *72:9 287.91 
3 *72:9 *72:11 4.5 
4 *72:11 io_oeb[5] 97.065 
*END

*D_NET *73 0.108451
*CONN
*P io_oeb[6] O
*I *419:io_oeb[6] O *D user_proj_example
*CAP
1 io_oeb[6] 0.0118934
2 *419:io_oeb[6] 0.000988287
3 *73:11 0.0118934
4 *73:9 0.0413436
5 *73:7 0.0423318
*RES
1 *419:io_oeb[6] *73:7 12.285 
2 *73:7 *73:9 336.69 
3 *73:9 *73:11 4.5 
4 *73:11 io_oeb[6] 94.725 
*END

*D_NET *74 0.208651
*CONN
*P io_oeb[7] O
*I *419:io_oeb[7] O *D user_proj_example
*CAP
1 io_oeb[7] 0.0123186
2 *419:io_oeb[7] 0.000630759
3 *74:11 0.0123186
4 *74:9 0.0287148
5 *74:7 0.0293456
6 *74:9 *112:11 0
7 *36:9 *74:9 0.125323
*RES
1 *419:io_oeb[7] *74:7 9.585 
2 *74:7 *74:9 385.29 
3 *74:9 *74:11 4.5 
4 *74:11 io_oeb[7] 97.425 
*END

*D_NET *77 0.0349008
*CONN
*P io_out[0] O
*I *419:io_out[0] O *D user_proj_example
*CAP
1 io_out[0] 0.0121279
2 *419:io_out[0] 0.00380465
3 *77:11 0.0159325
4 *39:11 *77:11 0.00303574
*RES
1 *419:io_out[0] *77:11 43.155 
2 *77:11 io_out[0] 97.245 
*END

*D_NET *88 0.0608164
*CONN
*P io_out[1] O
*I *419:io_out[1] O *D user_proj_example
*CAP
1 io_out[1] 0.0121232
2 *419:io_out[1] 0.000707771
3 *88:11 0.0121232
4 *88:9 0.0059879
5 *88:7 0.00669567
6 *39:11 *88:9 0.000500508
7 *50:9 *88:9 0.0226781
*RES
1 *419:io_out[1] *88:7 9.945 
2 *88:7 *88:9 77.49 
3 *88:9 *88:11 4.5 
4 *88:11 io_out[1] 97.065 
*END

*D_NET *99 0.0571905
*CONN
*P io_out[2] O
*I *419:io_out[2] O *D user_proj_example
*CAP
1 io_out[2] 0.00134433
2 *419:io_out[2] 0.0117525
3 *99:9 0.0168427
4 *99:7 0.0154984
5 *99:5 0.0117525
6 *99:5 io_out[4] 0
*RES
1 *419:io_out[2] *99:5 94.185 
2 *99:5 *99:7 4.5 
3 *99:7 *99:9 125.73 
4 *99:9 io_out[2] 12.825 
*END

*D_NET *100 0.239
*CONN
*P io_out[30] O
*I *419:io_out[8] O *D user_proj_example
*CAP
1 io_out[30] 0.00160691
2 *419:io_out[8] 0.000978141
3 *100:9 0.0105866
4 *100:7 0.00995785
5 *100:9 *101:9 0.0899068
6 *24:9 *100:9 0.125963
*RES
1 *419:io_out[8] *100:7 11.565 
2 *100:7 *100:9 334.89 
3 *100:9 io_out[30] 16.245 
*END

*D_NET *101 0.192334
*CONN
*P io_out[31] O
*I *419:io_out[9] O *D user_proj_example
*CAP
1 io_out[31] 0.00162847
2 *419:io_out[9] 0.000956561
3 *101:9 0.0116078
4 *101:7 0.0109359
5 *101:9 *102:9 0.0719333
6 *65:9 *101:9 0.00536558
7 *100:9 *101:9 0.0899068
*RES
1 *419:io_out[9] *101:7 11.385 
2 *101:7 *101:9 290.43 
3 *101:9 io_out[31] 16.425 
*END

*D_NET *102 0.164484
*CONN
*P io_out[32] O
*I *419:io_out[10] O *D user_proj_example
*CAP
1 io_out[32] 0.00165004
2 *419:io_out[10] 0.000934982
3 *102:9 0.00800279
4 *102:7 0.00728773
5 *64:17 *102:9 0.0658177
6 *65:9 *102:9 0.00885709
7 *101:9 *102:9 0.0719333
*RES
1 *419:io_out[10] *102:7 11.205 
2 *102:7 *102:9 246.15 
3 *102:9 io_out[32] 16.605 
*END

*D_NET *103 0.106589
*CONN
*P io_out[33] O
*I *419:io_out[11] O *D user_proj_example
*CAP
1 io_out[33] 0.000910449
2 *419:io_out[11] 0.00169151
3 *103:9 0.0141035
4 *103:7 0.0148846
5 *103:9 *104:9 0.000732152
6 *27:9 *103:9 0.0722804
7 *29:9 *103:9 0.00198615
*RES
1 *419:io_out[11] *103:7 16.245 
2 *103:7 *103:9 201.87 
3 *103:9 io_out[33] 11.565 
*END

*D_NET *104 0.110035
*CONN
*P io_out[34] O
*I *419:io_out[12] O *D user_proj_example
*CAP
1 io_out[34] 0.000790293
2 *419:io_out[12] 0.00180603
3 *104:9 0.00304261
4 *104:7 0.00405834
5 *26:7 *104:7 1.21105e-05
6 *27:9 *104:9 0.00867677
7 *28:9 *104:9 0.0543953
8 *29:9 *104:9 0.0334128
9 *67:9 *104:9 0.00310859
10 *103:9 *104:9 0.000732152
*RES
1 *419:io_out[12] *104:7 16.965 
2 *104:7 *104:9 157.59 
3 *104:9 io_out[34] 10.845 
*END

*D_NET *105 0.05228
*CONN
*P io_out[35] O
*I *419:io_out[13] O *D user_proj_example
*CAP
1 io_out[35] 0.00152279
2 *419:io_out[13] 0.000956561
3 *105:9 0.0114008
4 *105:7 0.0108346
5 io_out[35] *106:7 0.000155042
6 *66:9 *105:9 0.0274102
*RES
1 *419:io_out[13] *105:7 11.385 
2 *105:7 *105:9 113.49 
3 *105:9 io_out[35] 16.425 
*END

*D_NET *106 0.0367983
*CONN
*P io_out[36] O
*I *419:io_out[14] O *D user_proj_example
*CAP
1 io_out[36] 0.000811857
2 *419:io_out[14] 0.00165055
3 *106:9 0.00514725
4 *106:7 0.00598594
5 io_out[35] *106:7 0.000155042
6 *30:9 *106:9 0.0187006
7 *68:9 *106:9 0.00434704
*RES
1 *419:io_out[14] *106:7 16.785 
2 *106:7 *106:9 69.03 
3 *106:9 io_out[36] 11.025 
*END

*D_NET *107 0.01106
*CONN
*P io_out[37] O
*I *419:io_out[15] O *D user_proj_example
*CAP
1 io_out[37] 0.000751787
2 *419:io_out[15] 0.0047782
3 *107:11 0.00552999
*RES
1 *419:io_out[15] *107:11 46.395 
2 *107:11 io_out[37] 6.165 
*END

*D_NET *108 0.100479
*CONN
*P io_out[3] O
*I *419:io_out[3] O *D user_proj_example
*CAP
1 io_out[3] 0.0120585
2 *419:io_out[3] 0.00082329
3 *108:11 0.0120585
4 *108:9 0.0111971
5 *108:7 0.0120204
6 *61:9 *108:9 0.0160963
7 *71:9 *108:9 0.0362245
*RES
1 *419:io_out[3] *108:7 10.485 
2 *108:7 *108:9 174.69 
3 *108:9 *108:11 4.5 
4 *108:11 io_out[3] 96.525 
*END

*D_NET *109 0.0807085
*CONN
*P io_out[4] O
*I *419:io_out[4] O *D user_proj_example
*CAP
1 io_out[4] 0.0115021
2 *419:io_out[4] 0.00137967
3 *109:11 0.0115021
4 *109:9 0.0274725
5 *109:7 0.0288522
6 *99:5 io_out[4] 0
*RES
1 *419:io_out[4] *109:7 14.985 
2 *109:7 *109:9 223.29 
3 *109:9 *109:11 4.5 
4 *109:11 io_out[4] 92.025 
*END

*D_NET *110 0.0923591
*CONN
*P io_out[5] O
*I *419:io_out[5] O *D user_proj_example
*CAP
1 io_out[5] 0.0111784
2 *419:io_out[5] 0.00166951
3 *110:11 0.0111784
4 *110:9 0.0333316
5 *110:7 0.0350011
*RES
1 *419:io_out[5] *110:7 17.685 
2 *110:7 *110:9 271.89 
3 *110:9 *110:11 4.5 
4 *110:11 io_out[5] 89.325 
*END

*D_NET *111 0.10419
*CONN
*P io_out[6] O
*I *419:io_out[6] O *D user_proj_example
*CAP
1 io_out[6] 0.0108716
2 *419:io_out[6] 0.00197627
3 *111:11 0.0108716
4 *111:9 0.0392472
5 *111:7 0.0412235
*RES
1 *419:io_out[6] *111:7 20.385 
2 *111:7 *111:9 320.49 
3 *111:9 *111:11 4.5 
4 *111:11 io_out[6] 86.625 
*END
