*SPEF "ieee 1481-1999"
*DESIGN "user_project_wrapper"
*DATE "11:11:11 Fri 11 11, 1111"
*VENDOR "OpenRCX"
*PROGRAM "Parallel Extraction"
*VERSION "1.0"
*DESIGN_FLOW "NAME_SCOPE LOCAL" "PIN_CAP NONE"
*DIVIDER /
*DELIMITER :
*BUS_DELIMITER []
*T_UNIT 1 NS
*C_UNIT 1 PF
*R_UNIT 1 OHM
*L_UNIT 1 HENRY

*NAME_MAP
*1 io_in[0]
*2 io_in[10]
*3 io_in[11]
*4 io_in[12]
*5 io_in[13]
*6 io_in[14]
*7 io_in[15]
*8 io_in[16]
*9 io_in[17]
*10 io_in[18]
*11 io_in[19]
*12 io_in[1]
*13 io_in[20]
*14 io_in[21]
*15 io_in[22]
*16 io_in[23]
*17 io_in[24]
*18 io_in[25]
*19 io_in[26]
*20 io_in[27]
*21 io_in[28]
*22 io_in[29]
*23 io_in[2]
*24 io_in[30]
*25 io_in[31]
*26 io_in[32]
*27 io_in[33]
*28 io_in[34]
*29 io_in[35]
*30 io_in[36]
*31 io_in[37]
*32 io_in[3]
*33 io_in[4]
*34 io_in[5]
*35 io_in[6]
*36 io_in[7]
*37 io_in[8]
*38 io_in[9]
*39 io_oeb[0]
*40 io_oeb[10]
*41 io_oeb[11]
*42 io_oeb[12]
*43 io_oeb[13]
*44 io_oeb[14]
*45 io_oeb[15]
*46 io_oeb[16]
*47 io_oeb[17]
*48 io_oeb[18]
*49 io_oeb[19]
*50 io_oeb[1]
*51 io_oeb[20]
*52 io_oeb[21]
*53 io_oeb[22]
*54 io_oeb[23]
*55 io_oeb[24]
*56 io_oeb[25]
*57 io_oeb[26]
*58 io_oeb[27]
*59 io_oeb[28]
*60 io_oeb[29]
*61 io_oeb[2]
*62 io_oeb[30]
*63 io_oeb[31]
*64 io_oeb[32]
*65 io_oeb[33]
*66 io_oeb[34]
*67 io_oeb[35]
*68 io_oeb[36]
*69 io_oeb[37]
*70 io_oeb[3]
*71 io_oeb[4]
*72 io_oeb[5]
*73 io_oeb[6]
*74 io_oeb[7]
*75 io_oeb[8]
*76 io_oeb[9]
*77 io_out[0]
*78 io_out[10]
*79 io_out[11]
*80 io_out[12]
*81 io_out[13]
*82 io_out[14]
*83 io_out[15]
*84 io_out[16]
*85 io_out[17]
*86 io_out[18]
*87 io_out[19]
*88 io_out[1]
*89 io_out[20]
*90 io_out[21]
*91 io_out[22]
*92 io_out[23]
*93 io_out[24]
*94 io_out[25]
*95 io_out[26]
*96 io_out[27]
*97 io_out[28]
*98 io_out[29]
*99 io_out[2]
*100 io_out[30]
*101 io_out[31]
*102 io_out[32]
*103 io_out[33]
*104 io_out[34]
*105 io_out[35]
*106 io_out[36]
*107 io_out[37]
*108 io_out[3]
*109 io_out[4]
*110 io_out[5]
*111 io_out[6]
*112 io_out[7]
*113 io_out[8]
*114 io_out[9]
*115 la_data_in[0]
*116 la_data_in[10]
*117 la_data_in[11]
*118 la_data_in[12]
*119 la_data_in[13]
*120 la_data_in[14]
*121 la_data_in[15]
*122 la_data_in[16]
*123 la_data_in[17]
*124 la_data_in[18]
*125 la_data_in[19]
*126 la_data_in[1]
*127 la_data_in[20]
*128 la_data_in[21]
*129 la_data_in[22]
*130 la_data_in[23]
*131 la_data_in[24]
*132 la_data_in[25]
*133 la_data_in[26]
*134 la_data_in[27]
*135 la_data_in[28]
*136 la_data_in[29]
*137 la_data_in[2]
*138 la_data_in[30]
*139 la_data_in[31]
*140 la_data_in[32]
*141 la_data_in[33]
*142 la_data_in[34]
*143 la_data_in[35]
*144 la_data_in[36]
*145 la_data_in[37]
*146 la_data_in[38]
*147 la_data_in[39]
*148 la_data_in[3]
*149 la_data_in[40]
*150 la_data_in[41]
*151 la_data_in[42]
*152 la_data_in[43]
*153 la_data_in[44]
*154 la_data_in[45]
*155 la_data_in[46]
*156 la_data_in[47]
*157 la_data_in[48]
*158 la_data_in[49]
*159 la_data_in[4]
*160 la_data_in[50]
*161 la_data_in[51]
*162 la_data_in[52]
*163 la_data_in[53]
*164 la_data_in[54]
*165 la_data_in[55]
*166 la_data_in[56]
*167 la_data_in[57]
*168 la_data_in[58]
*169 la_data_in[59]
*170 la_data_in[5]
*171 la_data_in[60]
*172 la_data_in[61]
*173 la_data_in[62]
*174 la_data_in[63]
*175 la_data_in[6]
*176 la_data_in[7]
*177 la_data_in[8]
*178 la_data_in[9]
*179 la_data_out[0]
*180 la_data_out[10]
*181 la_data_out[11]
*182 la_data_out[12]
*183 la_data_out[13]
*184 la_data_out[14]
*185 la_data_out[15]
*186 la_data_out[16]
*187 la_data_out[17]
*188 la_data_out[18]
*189 la_data_out[19]
*190 la_data_out[1]
*191 la_data_out[20]
*192 la_data_out[21]
*193 la_data_out[22]
*194 la_data_out[23]
*195 la_data_out[24]
*196 la_data_out[25]
*197 la_data_out[26]
*198 la_data_out[27]
*199 la_data_out[28]
*200 la_data_out[29]
*201 la_data_out[2]
*202 la_data_out[30]
*203 la_data_out[31]
*204 la_data_out[32]
*205 la_data_out[33]
*206 la_data_out[34]
*207 la_data_out[35]
*208 la_data_out[36]
*209 la_data_out[37]
*210 la_data_out[38]
*211 la_data_out[39]
*212 la_data_out[3]
*213 la_data_out[40]
*214 la_data_out[41]
*215 la_data_out[42]
*216 la_data_out[43]
*217 la_data_out[44]
*218 la_data_out[45]
*219 la_data_out[46]
*220 la_data_out[47]
*221 la_data_out[48]
*222 la_data_out[49]
*223 la_data_out[4]
*224 la_data_out[50]
*225 la_data_out[51]
*226 la_data_out[52]
*227 la_data_out[53]
*228 la_data_out[54]
*229 la_data_out[55]
*230 la_data_out[56]
*231 la_data_out[57]
*232 la_data_out[58]
*233 la_data_out[59]
*234 la_data_out[5]
*235 la_data_out[60]
*236 la_data_out[61]
*237 la_data_out[62]
*238 la_data_out[63]
*239 la_data_out[6]
*240 la_data_out[7]
*241 la_data_out[8]
*242 la_data_out[9]
*243 la_oenb[0]
*244 la_oenb[10]
*245 la_oenb[11]
*246 la_oenb[12]
*247 la_oenb[13]
*248 la_oenb[14]
*249 la_oenb[15]
*250 la_oenb[16]
*251 la_oenb[17]
*252 la_oenb[18]
*253 la_oenb[19]
*254 la_oenb[1]
*255 la_oenb[20]
*256 la_oenb[21]
*257 la_oenb[22]
*258 la_oenb[23]
*259 la_oenb[24]
*260 la_oenb[25]
*261 la_oenb[26]
*262 la_oenb[27]
*263 la_oenb[28]
*264 la_oenb[29]
*265 la_oenb[2]
*266 la_oenb[30]
*267 la_oenb[31]
*268 la_oenb[32]
*269 la_oenb[33]
*270 la_oenb[34]
*271 la_oenb[35]
*272 la_oenb[36]
*273 la_oenb[37]
*274 la_oenb[38]
*275 la_oenb[39]
*276 la_oenb[3]
*277 la_oenb[40]
*278 la_oenb[41]
*279 la_oenb[42]
*280 la_oenb[43]
*281 la_oenb[44]
*282 la_oenb[45]
*283 la_oenb[46]
*284 la_oenb[47]
*285 la_oenb[48]
*286 la_oenb[49]
*287 la_oenb[4]
*288 la_oenb[50]
*289 la_oenb[51]
*290 la_oenb[52]
*291 la_oenb[53]
*292 la_oenb[54]
*293 la_oenb[55]
*294 la_oenb[56]
*295 la_oenb[57]
*296 la_oenb[58]
*297 la_oenb[59]
*298 la_oenb[5]
*299 la_oenb[60]
*300 la_oenb[61]
*301 la_oenb[62]
*302 la_oenb[63]
*303 la_oenb[6]
*304 la_oenb[7]
*305 la_oenb[8]
*306 la_oenb[9]
*307 user_clock2
*308 user_irq[0]
*309 user_irq[1]
*310 user_irq[2]
*313 wb_clk_i
*314 wb_rst_i
*315 wbs_ack_o
*316 wbs_adr_i[0]
*317 wbs_adr_i[10]
*318 wbs_adr_i[11]
*319 wbs_adr_i[12]
*320 wbs_adr_i[13]
*321 wbs_adr_i[14]
*322 wbs_adr_i[15]
*323 wbs_adr_i[16]
*324 wbs_adr_i[17]
*325 wbs_adr_i[18]
*326 wbs_adr_i[19]
*327 wbs_adr_i[1]
*328 wbs_adr_i[20]
*329 wbs_adr_i[21]
*330 wbs_adr_i[22]
*331 wbs_adr_i[23]
*332 wbs_adr_i[24]
*333 wbs_adr_i[25]
*334 wbs_adr_i[26]
*335 wbs_adr_i[27]
*336 wbs_adr_i[28]
*337 wbs_adr_i[29]
*338 wbs_adr_i[2]
*339 wbs_adr_i[30]
*340 wbs_adr_i[31]
*341 wbs_adr_i[3]
*342 wbs_adr_i[4]
*343 wbs_adr_i[5]
*344 wbs_adr_i[6]
*345 wbs_adr_i[7]
*346 wbs_adr_i[8]
*347 wbs_adr_i[9]
*348 wbs_cyc_i
*349 wbs_dat_i[0]
*350 wbs_dat_i[10]
*351 wbs_dat_i[11]
*352 wbs_dat_i[12]
*353 wbs_dat_i[13]
*354 wbs_dat_i[14]
*355 wbs_dat_i[15]
*356 wbs_dat_i[16]
*357 wbs_dat_i[17]
*358 wbs_dat_i[18]
*359 wbs_dat_i[19]
*360 wbs_dat_i[1]
*361 wbs_dat_i[20]
*362 wbs_dat_i[21]
*363 wbs_dat_i[22]
*364 wbs_dat_i[23]
*365 wbs_dat_i[24]
*366 wbs_dat_i[25]
*367 wbs_dat_i[26]
*368 wbs_dat_i[27]
*369 wbs_dat_i[28]
*370 wbs_dat_i[29]
*371 wbs_dat_i[2]
*372 wbs_dat_i[30]
*373 wbs_dat_i[31]
*374 wbs_dat_i[3]
*375 wbs_dat_i[4]
*376 wbs_dat_i[5]
*377 wbs_dat_i[6]
*378 wbs_dat_i[7]
*379 wbs_dat_i[8]
*380 wbs_dat_i[9]
*381 wbs_dat_o[0]
*382 wbs_dat_o[10]
*383 wbs_dat_o[11]
*384 wbs_dat_o[12]
*385 wbs_dat_o[13]
*386 wbs_dat_o[14]
*387 wbs_dat_o[15]
*388 wbs_dat_o[16]
*389 wbs_dat_o[17]
*390 wbs_dat_o[18]
*391 wbs_dat_o[19]
*392 wbs_dat_o[1]
*393 wbs_dat_o[20]
*394 wbs_dat_o[21]
*395 wbs_dat_o[22]
*396 wbs_dat_o[23]
*397 wbs_dat_o[24]
*398 wbs_dat_o[25]
*399 wbs_dat_o[26]
*400 wbs_dat_o[27]
*401 wbs_dat_o[28]
*402 wbs_dat_o[29]
*403 wbs_dat_o[2]
*404 wbs_dat_o[30]
*405 wbs_dat_o[31]
*406 wbs_dat_o[3]
*407 wbs_dat_o[4]
*408 wbs_dat_o[5]
*409 wbs_dat_o[6]
*410 wbs_dat_o[7]
*411 wbs_dat_o[8]
*412 wbs_dat_o[9]
*413 wbs_sel_i[0]
*414 wbs_sel_i[1]
*415 wbs_sel_i[2]
*416 wbs_sel_i[3]
*417 wbs_stb_i
*418 wbs_we_i
*419 mprj

*PORTS
io_in[0] I
io_in[10] I
io_in[11] I
io_in[12] I
io_in[13] I
io_in[14] I
io_in[15] I
io_in[16] I
io_in[17] I
io_in[18] I
io_in[19] I
io_in[1] I
io_in[20] I
io_in[21] I
io_in[22] I
io_in[23] I
io_in[24] I
io_in[25] I
io_in[26] I
io_in[27] I
io_in[28] I
io_in[29] I
io_in[2] I
io_in[30] I
io_in[31] I
io_in[32] I
io_in[33] I
io_in[34] I
io_in[35] I
io_in[36] I
io_in[37] I
io_in[3] I
io_in[4] I
io_in[5] I
io_in[6] I
io_in[7] I
io_in[8] I
io_in[9] I
io_oeb[0] O
io_oeb[10] O
io_oeb[11] O
io_oeb[12] O
io_oeb[13] O
io_oeb[14] O
io_oeb[15] O
io_oeb[16] O
io_oeb[17] O
io_oeb[18] O
io_oeb[19] O
io_oeb[1] O
io_oeb[20] O
io_oeb[21] O
io_oeb[22] O
io_oeb[23] O
io_oeb[24] O
io_oeb[25] O
io_oeb[26] O
io_oeb[27] O
io_oeb[28] O
io_oeb[29] O
io_oeb[2] O
io_oeb[30] O
io_oeb[31] O
io_oeb[32] O
io_oeb[33] O
io_oeb[34] O
io_oeb[35] O
io_oeb[36] O
io_oeb[37] O
io_oeb[3] O
io_oeb[4] O
io_oeb[5] O
io_oeb[6] O
io_oeb[7] O
io_oeb[8] O
io_oeb[9] O
io_out[0] O
io_out[10] O
io_out[11] O
io_out[12] O
io_out[13] O
io_out[14] O
io_out[15] O
io_out[16] O
io_out[17] O
io_out[18] O
io_out[19] O
io_out[1] O
io_out[20] O
io_out[21] O
io_out[22] O
io_out[23] O
io_out[24] O
io_out[25] O
io_out[26] O
io_out[27] O
io_out[28] O
io_out[29] O
io_out[2] O
io_out[30] O
io_out[31] O
io_out[32] O
io_out[33] O
io_out[34] O
io_out[35] O
io_out[36] O
io_out[37] O
io_out[3] O
io_out[4] O
io_out[5] O
io_out[6] O
io_out[7] O
io_out[8] O
io_out[9] O
la_data_in[0] I
la_data_in[10] I
la_data_in[11] I
la_data_in[12] I
la_data_in[13] I
la_data_in[14] I
la_data_in[15] I
la_data_in[16] I
la_data_in[17] I
la_data_in[18] I
la_data_in[19] I
la_data_in[1] I
la_data_in[20] I
la_data_in[21] I
la_data_in[22] I
la_data_in[23] I
la_data_in[24] I
la_data_in[25] I
la_data_in[26] I
la_data_in[27] I
la_data_in[28] I
la_data_in[29] I
la_data_in[2] I
la_data_in[30] I
la_data_in[31] I
la_data_in[32] I
la_data_in[33] I
la_data_in[34] I
la_data_in[35] I
la_data_in[36] I
la_data_in[37] I
la_data_in[38] I
la_data_in[39] I
la_data_in[3] I
la_data_in[40] I
la_data_in[41] I
la_data_in[42] I
la_data_in[43] I
la_data_in[44] I
la_data_in[45] I
la_data_in[46] I
la_data_in[47] I
la_data_in[48] I
la_data_in[49] I
la_data_in[4] I
la_data_in[50] I
la_data_in[51] I
la_data_in[52] I
la_data_in[53] I
la_data_in[54] I
la_data_in[55] I
la_data_in[56] I
la_data_in[57] I
la_data_in[58] I
la_data_in[59] I
la_data_in[5] I
la_data_in[60] I
la_data_in[61] I
la_data_in[62] I
la_data_in[63] I
la_data_in[6] I
la_data_in[7] I
la_data_in[8] I
la_data_in[9] I
la_data_out[0] O
la_data_out[10] O
la_data_out[11] O
la_data_out[12] O
la_data_out[13] O
la_data_out[14] O
la_data_out[15] O
la_data_out[16] O
la_data_out[17] O
la_data_out[18] O
la_data_out[19] O
la_data_out[1] O
la_data_out[20] O
la_data_out[21] O
la_data_out[22] O
la_data_out[23] O
la_data_out[24] O
la_data_out[25] O
la_data_out[26] O
la_data_out[27] O
la_data_out[28] O
la_data_out[29] O
la_data_out[2] O
la_data_out[30] O
la_data_out[31] O
la_data_out[32] O
la_data_out[33] O
la_data_out[34] O
la_data_out[35] O
la_data_out[36] O
la_data_out[37] O
la_data_out[38] O
la_data_out[39] O
la_data_out[3] O
la_data_out[40] O
la_data_out[41] O
la_data_out[42] O
la_data_out[43] O
la_data_out[44] O
la_data_out[45] O
la_data_out[46] O
la_data_out[47] O
la_data_out[48] O
la_data_out[49] O
la_data_out[4] O
la_data_out[50] O
la_data_out[51] O
la_data_out[52] O
la_data_out[53] O
la_data_out[54] O
la_data_out[55] O
la_data_out[56] O
la_data_out[57] O
la_data_out[58] O
la_data_out[59] O
la_data_out[5] O
la_data_out[60] O
la_data_out[61] O
la_data_out[62] O
la_data_out[63] O
la_data_out[6] O
la_data_out[7] O
la_data_out[8] O
la_data_out[9] O
la_oenb[0] I
la_oenb[10] I
la_oenb[11] I
la_oenb[12] I
la_oenb[13] I
la_oenb[14] I
la_oenb[15] I
la_oenb[16] I
la_oenb[17] I
la_oenb[18] I
la_oenb[19] I
la_oenb[1] I
la_oenb[20] I
la_oenb[21] I
la_oenb[22] I
la_oenb[23] I
la_oenb[24] I
la_oenb[25] I
la_oenb[26] I
la_oenb[27] I
la_oenb[28] I
la_oenb[29] I
la_oenb[2] I
la_oenb[30] I
la_oenb[31] I
la_oenb[32] I
la_oenb[33] I
la_oenb[34] I
la_oenb[35] I
la_oenb[36] I
la_oenb[37] I
la_oenb[38] I
la_oenb[39] I
la_oenb[3] I
la_oenb[40] I
la_oenb[41] I
la_oenb[42] I
la_oenb[43] I
la_oenb[44] I
la_oenb[45] I
la_oenb[46] I
la_oenb[47] I
la_oenb[48] I
la_oenb[49] I
la_oenb[4] I
la_oenb[50] I
la_oenb[51] I
la_oenb[52] I
la_oenb[53] I
la_oenb[54] I
la_oenb[55] I
la_oenb[56] I
la_oenb[57] I
la_oenb[58] I
la_oenb[59] I
la_oenb[5] I
la_oenb[60] I
la_oenb[61] I
la_oenb[62] I
la_oenb[63] I
la_oenb[6] I
la_oenb[7] I
la_oenb[8] I
la_oenb[9] I
user_clock2 I
user_irq[0] O
user_irq[1] O
user_irq[2] O
wb_clk_i I
wb_rst_i I
wbs_ack_o O
wbs_adr_i[0] I
wbs_adr_i[10] I
wbs_adr_i[11] I
wbs_adr_i[12] I
wbs_adr_i[13] I
wbs_adr_i[14] I
wbs_adr_i[15] I
wbs_adr_i[16] I
wbs_adr_i[17] I
wbs_adr_i[18] I
wbs_adr_i[19] I
wbs_adr_i[1] I
wbs_adr_i[20] I
wbs_adr_i[21] I
wbs_adr_i[22] I
wbs_adr_i[23] I
wbs_adr_i[24] I
wbs_adr_i[25] I
wbs_adr_i[26] I
wbs_adr_i[27] I
wbs_adr_i[28] I
wbs_adr_i[29] I
wbs_adr_i[2] I
wbs_adr_i[30] I
wbs_adr_i[31] I
wbs_adr_i[3] I
wbs_adr_i[4] I
wbs_adr_i[5] I
wbs_adr_i[6] I
wbs_adr_i[7] I
wbs_adr_i[8] I
wbs_adr_i[9] I
wbs_cyc_i I
wbs_dat_i[0] I
wbs_dat_i[10] I
wbs_dat_i[11] I
wbs_dat_i[12] I
wbs_dat_i[13] I
wbs_dat_i[14] I
wbs_dat_i[15] I
wbs_dat_i[16] I
wbs_dat_i[17] I
wbs_dat_i[18] I
wbs_dat_i[19] I
wbs_dat_i[1] I
wbs_dat_i[20] I
wbs_dat_i[21] I
wbs_dat_i[22] I
wbs_dat_i[23] I
wbs_dat_i[24] I
wbs_dat_i[25] I
wbs_dat_i[26] I
wbs_dat_i[27] I
wbs_dat_i[28] I
wbs_dat_i[29] I
wbs_dat_i[2] I
wbs_dat_i[30] I
wbs_dat_i[31] I
wbs_dat_i[3] I
wbs_dat_i[4] I
wbs_dat_i[5] I
wbs_dat_i[6] I
wbs_dat_i[7] I
wbs_dat_i[8] I
wbs_dat_i[9] I
wbs_dat_o[0] O
wbs_dat_o[10] O
wbs_dat_o[11] O
wbs_dat_o[12] O
wbs_dat_o[13] O
wbs_dat_o[14] O
wbs_dat_o[15] O
wbs_dat_o[16] O
wbs_dat_o[17] O
wbs_dat_o[18] O
wbs_dat_o[19] O
wbs_dat_o[1] O
wbs_dat_o[20] O
wbs_dat_o[21] O
wbs_dat_o[22] O
wbs_dat_o[23] O
wbs_dat_o[24] O
wbs_dat_o[25] O
wbs_dat_o[26] O
wbs_dat_o[27] O
wbs_dat_o[28] O
wbs_dat_o[29] O
wbs_dat_o[2] O
wbs_dat_o[30] O
wbs_dat_o[31] O
wbs_dat_o[3] O
wbs_dat_o[4] O
wbs_dat_o[5] O
wbs_dat_o[6] O
wbs_dat_o[7] O
wbs_dat_o[8] O
wbs_dat_o[9] O
wbs_sel_i[0] I
wbs_sel_i[1] I
wbs_sel_i[2] I
wbs_sel_i[3] I
wbs_stb_i I
wbs_we_i I

*D_NET *1 0.0304775
*CONN
*P io_in[0] I
*I *419:io_in[0] I *D user_proj_example
*CAP
1 io_in[0] 0.0128542
2 *419:io_in[0] 0.00238453
3 *1:5 0.0152387
4 *419:io_in[0] la_data_out[56] 0
*RES
1 io_in[0] *1:5 112.58 
2 *1:5 *419:io_in[0] 29.54 
*END

*D_NET *12 0.0428654
*CONN
*P io_in[1] I
*I *419:io_in[1] I *D user_proj_example
*CAP
1 io_in[1] 0.00119074
2 *419:io_in[1] 0.0123505
3 *12:11 0.0123505
4 *12:9 0.00789145
5 *12:7 0.00908219
*RES
1 io_in[1] *12:7 14.12 
2 *12:7 *12:9 70.408 
3 *12:9 *12:11 4.5 
4 *12:11 *419:io_in[1] 108.836 
*END

*D_NET *23 0.0839238
*CONN
*P io_in[2] I
*I *419:io_in[2] I *D user_proj_example
*CAP
1 io_in[2] 0.0128758
2 *419:io_in[2] 0.000665508
3 *23:9 0.00808526
4 *23:7 0.00741976
5 *23:5 0.0128758
6 *23:9 *32:9 0.00684844
7 *23:9 *50:9 0.0335191
8 *23:9 *70:9 0.00163427
*RES
1 io_in[2] *23:5 112.58 
2 *23:5 *23:7 4.5 
3 *23:7 *23:9 126.984 
4 *23:9 *419:io_in[2] 10.376 
*END

*D_NET *24 0.201157
*CONN
*P io_in[30] I
*I *419:io_in[8] I *D user_proj_example
*CAP
1 io_in[30] 0.00170524
2 *419:io_in[8] 0.00107662
3 *24:9 0.0266969
4 *24:7 0.0273255
5 *24:9 *100:9 0.144353
*RES
1 io_in[30] *24:7 17.864 
2 *24:7 *24:9 403.832 
3 *24:9 *419:io_in[8] 12.872 
*END

*D_NET *25 0.257228
*CONN
*P io_in[31] I
*I *419:io_in[9] I *D user_proj_example
*CAP
1 io_in[31] 0.000813015
2 *419:io_in[9] 0.0019043
3 *25:9 0.00914824
4 *25:7 0.00805696
5 *25:9 *62:9 0.130721
6 *25:9 *63:9 0.106584
*RES
1 io_in[31] *25:7 11.832 
2 *25:7 *25:9 352.664 
3 *25:9 *419:io_in[9] 18.904 
*END

*D_NET *26 0.204241
*CONN
*P io_in[32] I
*I *419:io_in[10] I *D user_proj_example
*CAP
1 io_in[32] 0.000873939
2 *419:io_in[10] 0.0018806
3 *26:9 0.0101424
4 *26:7 0.00913577
5 *26:7 *104:7 1.24662e-05
6 *26:9 *27:9 0.0688364
7 *26:9 *28:9 0.00309236
8 *26:9 *63:9 0.110267
*RES
1 io_in[32] *26:7 12.248 
2 *26:7 *26:9 301.704 
3 *26:9 *419:io_in[10] 18.488 
*END

*D_NET *27 0.174515
*CONN
*P io_in[33] I
*I *419:io_in[11] I *D user_proj_example
*CAP
1 io_in[33] 0.000923847
2 *419:io_in[11] 0.00190102
3 *27:9 0.00589483
4 *27:7 0.00491765
5 *27:9 *28:9 0.000100199
6 *27:9 *103:9 0.0828326
7 *27:9 *104:9 0.0091082
8 *26:9 *27:9 0.0688364
*RES
1 io_in[33] *27:7 12.456 
2 *27:7 *27:9 250.328 
3 *27:9 *419:io_in[11] 18.28 
*END

*D_NET *28 0.097677
*CONN
*P io_in[34] I
*I *419:io_in[12] I *D user_proj_example
*CAP
1 io_in[34] 0.000790409
2 *419:io_in[12] 0.00203444
3 *28:9 0.0138807
4 *28:7 0.0126367
5 *28:9 *63:9 0.00280571
6 *28:9 *104:9 0.0623365
7 *26:9 *28:9 0.00309236
8 *27:9 *28:9 0.000100199
*RES
1 io_in[34] *28:7 11.624 
2 *28:7 *28:9 199.16 
3 *28:9 *419:io_in[12] 19.112 
*END

*D_NET *29 0.0748074
*CONN
*P io_in[35] I
*I *419:io_in[13] I *D user_proj_example
*CAP
1 io_in[35] 0.000878653
2 *419:io_in[13] 0.00190319
3 *29:9 0.00970337
4 *29:7 0.00867884
5 *29:9 *30:9 0.00728785
6 *29:9 *67:9 0.00597775
7 *29:9 *103:9 0.00208759
8 *29:9 *104:9 0.0382901
*RES
1 io_in[35] *29:7 12.04 
2 *29:7 *29:9 147.992 
3 *29:9 *419:io_in[13] 18.696 
*END

*D_NET *30 0.0715483
*CONN
*P io_in[36] I
*I *419:io_in[14] I *D user_proj_example
*CAP
1 io_in[36] 0.000834531
2 *419:io_in[14] 0.0019043
3 *30:9 0.00444258
4 *30:7 0.00337282
5 *30:9 *67:9 0.0282068
6 *30:9 *68:9 0.00406873
7 *30:9 *106:9 0.0214307
8 *29:9 *30:9 0.00728785
*RES
1 io_in[36] *30:7 11.832 
2 *30:7 *30:9 96.824 
3 *30:9 *419:io_in[14] 18.904 
*END

*D_NET *31 0.0207785
*CONN
*P io_in[37] I
*I *419:io_in[15] I *D user_proj_example
*CAP
1 io_in[37] 0.00224452
2 *419:io_in[15] 0.000451292
3 *31:9 0.0081447
4 *31:7 0.00993793
*RES
1 io_in[37] *31:7 22.232 
2 *31:7 *31:9 45.864 
3 *31:9 *419:io_in[15] 8.504 
*END

*D_NET *32 0.164682
*CONN
*P io_in[3] I
*I *419:io_in[3] I *D user_proj_example
*CAP
1 io_in[3] 0.0128305
2 *419:io_in[3] 0.000753753
3 *32:9 0.00143371
4 *32:7 0.000679961
5 *32:5 0.0128305
6 *32:9 *34:9 0.0143766
7 *32:9 *50:9 0.00401067
8 *32:9 *61:9 0.0560126
9 *32:9 *70:9 0.053653
10 *32:9 *71:9 0.0012523
11 *23:9 *32:9 0.00684844
*RES
1 io_in[3] *32:5 112.164 
2 *32:5 *32:7 4.5 
3 *32:7 *32:9 183.144 
4 *32:9 *419:io_in[3] 10.792 
*END

*D_NET *33 0.145144
*CONN
*P io_in[4] I
*I *419:io_in[4] I *D user_proj_example
*CAP
1 io_in[4] 0.0129403
2 *419:io_in[4] 0.000665508
3 *33:9 0.0145629
4 *33:7 0.0138974
5 *33:5 0.0129403
6 *33:9 *36:9 0.00738155
7 *33:9 *70:9 0.0784516
8 *33:9 *72:9 0.00430421
*RES
1 io_in[4] *33:5 112.58 
2 *33:5 *33:7 4.5 
3 *33:7 *33:9 239.304 
4 *33:9 *419:io_in[4] 10.376 
*END

*D_NET *34 0.250455
*CONN
*P io_in[5] I
*I *419:io_in[5] I *D user_proj_example
*CAP
1 io_in[5] 0.0128294
2 *419:io_in[5] 0.000981553
3 *34:9 0.00430156
4 *34:7 0.00332001
5 *34:5 0.0128294
6 *34:9 *70:9 0.00231914
7 *34:9 *71:9 0.100958
8 *34:9 *72:9 0.0985396
9 *32:9 *34:9 0.0143766
*RES
1 io_in[5] *34:5 111.956 
2 *34:5 *34:7 4.5 
3 *34:7 *34:9 295.464 
4 *34:9 *419:io_in[5] 11 
*END

*D_NET *35 0.10551
*CONN
*P io_in[6] I
*I *419:io_in[6] I *D user_proj_example
*CAP
1 io_in[6] 0.00119074
2 *419:io_in[6] 0.012415
3 *35:11 0.012415
4 *35:9 0.0391494
5 *35:7 0.0403401
*RES
1 io_in[6] *35:7 14.12 
2 *35:7 *35:9 351.208 
3 *35:9 *35:11 4.5 
4 *35:11 *419:io_in[6] 108.836 
*END

*D_NET *36 0.296987
*CONN
*P io_in[7] I
*I *419:io_in[7] I *D user_proj_example
*CAP
1 io_in[7] 0.0129821
2 *419:io_in[7] 0.000709631
3 *36:9 0.0130294
4 *36:7 0.0123197
5 *36:5 0.0129821
6 *36:9 *72:9 0.0939651
7 *36:9 *74:9 0.143617
8 *33:9 *36:9 0.00738155
*RES
1 io_in[7] *36:5 112.372 
2 *36:5 *36:7 4.5 
3 *36:7 *36:9 407.784 
4 *36:9 *419:io_in[7] 10.584 
*END

*D_NET *39 0.0414432
*CONN
*P io_oeb[0] O
*I *419:io_oeb[0] O *D user_proj_example
*CAP
1 io_oeb[0] 0.0128542
2 *419:io_oeb[0] 0.000665508
3 *39:11 0.0128542
4 *39:9 0.00519617
5 *39:7 0.00586167
6 *39:9 *77:11 0.00347842
7 *39:9 *88:9 0.000532949
*RES
1 *419:io_oeb[0] *39:7 10.376 
2 *39:7 *39:9 51.896 
3 *39:9 *39:11 4.5 
4 *39:11 io_oeb[0] 112.58 
*END

*D_NET *50 0.0994809
*CONN
*P io_oeb[1] O
*I *419:io_oeb[1] O *D user_proj_example
*CAP
1 io_oeb[1] 0.0128531
2 *419:io_oeb[1] 0.000709631
3 *50:11 0.0128531
4 *50:9 0.00225622
5 *50:7 0.00296585
6 *50:9 *61:9 0.00432403
7 *50:9 *88:9 0.0259891
8 *23:9 *50:9 0.0335191
9 *32:9 *50:9 0.00401067
*RES
1 *419:io_oeb[1] *50:7 10.584 
2 *50:7 *50:9 108.264 
3 *50:9 *50:11 4.5 
4 *50:11 io_oeb[1] 112.372 
*END

*D_NET *61 0.118487
*CONN
*P io_oeb[2] O
*I *419:io_oeb[2] O *D user_proj_example
*CAP
1 io_oeb[2] 0.0127864
2 *419:io_oeb[2] 0.000797876
3 *61:11 0.0127864
4 *61:9 0.00345389
5 *61:7 0.00425176
6 *61:9 *71:9 0.00694301
7 *61:9 *108:9 0.0171305
8 *32:9 *61:9 0.0560126
9 *50:9 *61:9 0.00432403
*RES
1 *419:io_oeb[2] *61:7 11 
2 *61:7 *61:9 164.424 
3 *61:9 *61:11 4.5 
4 *61:11 io_oeb[2] 111.956 
*END

*D_NET *62 0.183158
*CONN
*P io_oeb[30] O
*I *419:io_oeb[8] O *D user_proj_example
*CAP
1 io_oeb[30] 0.000790409
2 *419:io_oeb[8] 0.0019269
3 *62:9 0.0242917
4 *62:7 0.0254282
5 *25:9 *62:9 0.130721
*RES
1 *419:io_oeb[8] *62:7 19.112 
2 *62:7 *62:9 369.72 
3 *62:9 io_oeb[30] 11.624 
*END

*D_NET *63 0.235665
*CONN
*P io_oeb[31] O
*I *419:io_oeb[9] O *D user_proj_example
*CAP
1 io_oeb[31] 0.000857118
2 *419:io_oeb[9] 0.00190321
3 *63:9 0.00610075
4 *63:7 0.00714684
5 *25:9 *63:9 0.106584
6 *26:9 *63:9 0.110267
7 *28:9 *63:9 0.00280571
*RES
1 *419:io_oeb[9] *63:7 18.696 
2 *63:7 *63:9 318.552 
3 *63:9 io_oeb[31] 12.04 
*END

*D_NET *64 0.127915
*CONN
*P io_oeb[32] O
*I *419:io_oeb[10] O *D user_proj_example
*CAP
1 io_oeb[32] 0.00219468
2 *419:io_oeb[10] 0.00057715
3 *64:17 0.0150273
4 *64:15 0.0134111
5 *64:9 0.00938043
6 *64:7 0.0093791
7 *64:17 *65:9 0.00157173
8 *64:17 *66:9 0.000946513
9 *64:17 *102:9 0.0754273
*RES
1 *419:io_oeb[10] *64:7 8.504 
2 *64:7 *64:9 52.728 
3 *64:9 *64:15 12.64 
4 *64:15 *64:17 214.76 
5 *64:17 io_oeb[32] 18.696 
*END

*D_NET *65 0.0843977
*CONN
*P io_oeb[33] O
*I *419:io_oeb[11] O *D user_proj_example
*CAP
1 io_oeb[33] 0.00166221
2 *419:io_oeb[11] 0.00114115
3 *65:9 0.0154189
4 *65:7 0.0148978
5 *65:9 *66:9 0.0346973
6 *65:9 *101:9 0.00571004
7 *65:9 *102:9 0.00929853
8 *64:17 *65:9 0.00157173
*RES
1 *419:io_oeb[11] *65:7 12.872 
2 *65:7 *65:9 216.424 
3 *65:9 io_oeb[33] 17.864 
*END

*D_NET *66 0.0915923
*CONN
*P io_oeb[34] O
*I *419:io_oeb[12] O *D user_proj_example
*CAP
1 io_oeb[34] 0.00204763
2 *419:io_oeb[12] 0.00107551
3 *66:9 0.011193
4 *66:7 0.0102209
5 *66:9 *105:9 0.0314114
6 *64:17 *66:9 0.000946513
7 *65:9 *66:9 0.0346973
*RES
1 *419:io_oeb[12] *66:7 12.664 
2 *66:7 *66:9 165.048 
3 *66:9 io_oeb[34] 18.072 
*END

*D_NET *67 0.0567998
*CONN
*P io_oeb[35] O
*I *419:io_oeb[13] O *D user_proj_example
*CAP
1 io_oeb[35] 0.000790409
2 *419:io_oeb[13] 0.00196993
3 *67:9 0.00755611
4 *67:7 0.00873564
5 *67:9 *104:9 0.0035631
6 *29:9 *67:9 0.00597775
7 *30:9 *67:9 0.0282068
*RES
1 *419:io_oeb[13] *67:7 19.112 
2 *67:7 *67:9 113.88 
3 *67:9 io_oeb[35] 11.624 
*END

*D_NET *68 0.0244182
*CONN
*P io_oeb[36] O
*I *419:io_oeb[14] O *D user_proj_example
*CAP
1 io_oeb[36] 0.000790409
2 *419:io_oeb[14] 0.00192692
3 *68:9 0.00593341
4 *68:7 0.00706992
5 *68:9 *106:9 0.00462879
6 *30:9 *68:9 0.00406873
*RES
1 *419:io_oeb[14] *68:7 19.112 
2 *68:7 *68:9 62.712 
3 *68:9 io_oeb[36] 11.624 
*END

*D_NET *69 0.00806679
*CONN
*P io_oeb[37] O
*I *419:io_oeb[15] O *D user_proj_example
*CAP
1 io_oeb[37] 0.0040334
2 *419:io_oeb[15] 0.0040334
*RES
1 *419:io_oeb[15] io_oeb[37] 42.28 
*END

*D_NET *70 0.19614
*CONN
*P io_oeb[3] O
*I *419:io_oeb[3] O *D user_proj_example
*CAP
1 io_oeb[3] 0.0128961
2 *419:io_oeb[3] 0.000709631
3 *70:11 0.0128961
4 *70:9 0.00178626
5 *70:7 0.00249589
6 *70:9 *72:9 0.0292977
7 *23:9 *70:9 0.00163427
8 *32:9 *70:9 0.053653
9 *33:9 *70:9 0.0784516
10 *34:9 *70:9 0.00231914
*RES
1 *419:io_oeb[3] *70:7 10.584 
2 *70:7 *70:9 220.584 
3 *70:9 *70:11 4.5 
4 *70:11 io_oeb[3] 112.372 
*END

*D_NET *71 0.198469
*CONN
*P io_oeb[4] O
*I *419:io_oeb[4] O *D user_proj_example
*CAP
1 io_oeb[4] 0.0127853
2 *419:io_oeb[4] 0.000841998
3 *71:11 0.0127853
4 *71:9 0.0102745
5 *71:7 0.0111165
6 *71:9 *108:9 0.0415128
7 *32:9 *71:9 0.0012523
8 *34:9 *71:9 0.100958
9 *61:9 *71:9 0.00694301
*RES
1 *419:io_oeb[4] *71:7 11.208 
2 *71:7 *71:9 276.744 
3 *71:9 *71:11 4.5 
4 *71:11 io_oeb[4] 111.748 
*END

*D_NET *72 0.265034
*CONN
*P io_oeb[5] O
*I *419:io_oeb[5] O *D user_proj_example
*CAP
1 io_oeb[5] 0.0128951
2 *419:io_oeb[5] 0.000753753
3 *72:11 0.0128951
4 *72:9 0.0058149
5 *72:7 0.00656865
6 *33:9 *72:9 0.00430421
7 *34:9 *72:9 0.0985396
8 *36:9 *72:9 0.0939651
9 *70:9 *72:9 0.0292977
*RES
1 *419:io_oeb[5] *72:7 10.792 
2 *72:7 *72:9 332.696 
3 *72:9 *72:11 4.5 
4 *72:11 io_oeb[5] 112.164 
*END

*D_NET *73 0.114456
*CONN
*P io_oeb[6] O
*I *419:io_oeb[6] O *D user_proj_example
*CAP
1 io_oeb[6] 0.0125796
2 *419:io_oeb[6] 0.00104762
3 *73:11 0.0125796
4 *73:9 0.043601
5 *73:7 0.0446486
*RES
1 *419:io_oeb[6] *73:7 13.496 
2 *73:7 *73:9 389.064 
3 *73:9 *73:11 4.5 
4 *73:11 io_oeb[6] 109.46 
*END

*D_NET *74 0.231825
*CONN
*P io_oeb[7] O
*I *419:io_oeb[7] O *D user_proj_example
*CAP
1 io_oeb[7] 0.0130478
2 *419:io_oeb[7] 0.000665508
3 *74:11 0.0130478
4 *74:9 0.0303906
5 *74:7 0.0310562
6 *74:9 *112:11 0
7 *36:9 *74:9 0.143617
*RES
1 *419:io_oeb[7] *74:7 10.376 
2 *74:7 *74:9 445.224 
3 *74:9 *74:11 4.5 
4 *74:11 io_oeb[7] 112.58 
*END

*D_NET *77 0.0371488
*CONN
*P io_out[0] O
*I *419:io_out[0] O *D user_proj_example
*CAP
1 io_out[0] 0.0128101
2 *419:io_out[0] 0.0040251
3 *77:11 0.0168352
4 *39:9 *77:11 0.00347842
*RES
1 *419:io_out[0] *77:11 48.468 
2 *77:11 io_out[0] 112.372 
*END

*D_NET *88 0.0663223
*CONN
*P io_out[1] O
*I *419:io_out[1] O *D user_proj_example
*CAP
1 io_out[1] 0.012809
2 *419:io_out[1] 0.000753753
3 *88:11 0.012809
4 *88:9 0.00633735
5 *88:7 0.0070911
6 *39:9 *88:9 0.000532949
7 *50:9 *88:9 0.0259891
*RES
1 *419:io_out[1] *88:7 10.792 
2 *88:7 *88:9 89.544 
3 *88:9 *88:11 4.5 
4 *88:11 io_out[1] 112.164 
*END

*D_NET *99 0.0604627
*CONN
*P io_out[2] O
*I *419:io_out[2] O *D user_proj_example
*CAP
1 io_out[2] 0.00145946
2 *419:io_out[2] 0.012415
3 *99:9 0.0178163
4 *99:7 0.0163569
5 *99:5 0.012415
6 *99:5 io_out[4] 0
*RES
1 *419:io_out[2] *99:5 108.836 
2 *99:5 *99:7 4.5 
3 *99:7 *99:9 145.288 
4 *99:9 io_out[2] 14.12 
*END

*D_NET *100 0.272213
*CONN
*P io_out[30] O
*I *419:io_out[8] O *D user_proj_example
*CAP
1 io_out[30] 0.00172785
2 *419:io_out[8] 0.00105401
3 *100:9 0.0113601
4 *100:7 0.0106862
5 *100:9 *101:9 0.103032
6 *24:9 *100:9 0.144353
*RES
1 *419:io_out[8] *100:7 12.664 
2 *100:7 *100:9 386.984 
3 *100:9 io_out[30] 18.072 
*END

*D_NET *101 0.218073
*CONN
*P io_out[31] O
*I *419:io_out[9] O *D user_proj_example
*CAP
1 io_out[31] 0.00175043
2 *419:io_out[9] 0.00103141
3 *101:9 0.012417
4 *101:7 0.0116979
5 *101:9 *102:9 0.0824344
6 *65:9 *101:9 0.00571004
7 *100:9 *101:9 0.103032
*RES
1 *419:io_out[9] *101:7 12.456 
2 *101:7 *101:9 335.608 
3 *101:9 io_out[31] 18.28 
*END

*D_NET *102 0.186475
*CONN
*P io_out[32] O
*I *419:io_out[10] O *D user_proj_example
*CAP
1 io_out[32] 0.00177302
2 *419:io_out[10] 0.0010088
3 *102:9 0.00864855
4 *102:7 0.00788433
5 *64:17 *102:9 0.0754273
6 *65:9 *102:9 0.00929853
7 *101:9 *102:9 0.0824344
*RES
1 *419:io_out[10] *102:7 12.248 
2 *102:7 *102:9 284.44 
3 *102:9 io_out[32] 18.488 
*END

*D_NET *103 0.119293
*CONN
*P io_out[33] O
*I *419:io_out[11] O *D user_proj_example
*CAP
1 io_out[33] 0.000967969
2 *419:io_out[11] 0.00183539
3 *103:9 0.0149683
4 *103:7 0.0158357
5 *103:9 *104:9 0.000765425
6 *27:9 *103:9 0.0828326
7 *29:9 *103:9 0.00208759
*RES
1 *419:io_out[11] *103:7 18.072 
2 *103:7 *103:9 233.272 
3 *103:9 io_out[33] 12.664 
*END

*D_NET *104 0.124732
*CONN
*P io_out[34] O
*I *419:io_out[12] O *D user_proj_example
*CAP
1 io_out[34] 0.000834531
2 *419:io_out[12] 0.00196303
3 *104:9 0.00336509
4 *104:7 0.00449359
5 *26:7 *104:7 1.24662e-05
6 *27:9 *104:9 0.0091082
7 *28:9 *104:9 0.0623365
8 *29:9 *104:9 0.0382901
9 *67:9 *104:9 0.0035631
10 *103:9 *104:9 0.000765425
*RES
1 *419:io_out[12] *104:7 18.904 
2 *104:7 *104:9 182.104 
3 *104:9 io_out[34] 11.832 
*END

*D_NET *105 0.057791
*CONN
*P io_out[35] O
*I *419:io_out[13] O *D user_proj_example
*CAP
1 io_out[35] 0.00163355
2 *419:io_out[13] 0.00103141
3 *105:9 0.0120785
4 *105:7 0.0114764
5 io_out[35] *106:7 0.000159834
6 *66:9 *105:9 0.0314114
*RES
1 *419:io_out[13] *105:7 12.456 
2 *105:7 *105:9 131.144 
3 *105:9 io_out[35] 18.28 
*END

*D_NET *106 0.0406933
*CONN
*P io_out[36] O
*I *419:io_out[14] O *D user_proj_example
*CAP
1 io_out[36] 0.000857118
2 *419:io_out[14] 0.0017863
3 *106:9 0.00545071
4 *106:7 0.00637989
5 io_out[35] *106:7 0.000159834
6 *30:9 *106:9 0.0214307
7 *68:9 *106:9 0.00462879
*RES
1 *419:io_out[14] *106:7 18.696 
2 *106:7 *106:9 79.768 
3 *106:9 io_out[36] 12.04 
*END

*D_NET *107 0.0117416
*CONN
*P io_out[37] O
*I *419:io_out[15] O *D user_proj_example
*CAP
1 io_out[37] 0.000790409
2 *419:io_out[15] 0.00508039
3 *107:9 0.00587079
*RES
1 *419:io_out[15] *107:9 47.712 
2 *107:9 io_out[37] 11.624 
*END

*D_NET *108 0.109678
*CONN
*P io_out[3] O
*I *419:io_out[3] O *D user_proj_example
*CAP
1 io_out[3] 0.0127412
2 *419:io_out[3] 0.00088612
3 *108:11 0.0127412
4 *108:9 0.0118899
5 *108:7 0.012776
6 *61:9 *108:9 0.0171305
7 *71:9 *108:9 0.0415128
*RES
1 *419:io_out[3] *108:7 11.416 
2 *108:7 *108:9 201.864 
3 *108:9 *108:11 4.5 
4 *108:11 io_out[3] 111.54 
*END

*D_NET *109 0.0852205
*CONN
*P io_out[4] O
*I *419:io_out[4] O *D user_proj_example
*CAP
1 io_out[4] 0.0121545
2 *419:io_out[4] 0.00147276
3 *109:11 0.0121545
4 *109:9 0.028983
5 *109:7 0.0304557
6 *99:5 io_out[4] 0
*RES
1 *419:io_out[4] *109:7 16.616 
2 *109:7 *109:9 258.024 
3 *109:9 *109:11 4.5 
4 *109:11 io_out[4] 106.34 
*END

*D_NET *110 0.097454
*CONN
*P io_out[5] O
*I *419:io_out[5] O *D user_proj_example
*CAP
1 io_out[5] 0.0118154
2 *419:io_out[5] 0.00176882
3 *110:11 0.0118154
4 *110:9 0.0351427
5 *110:7 0.0369116
*RES
1 *419:io_out[5] *110:7 19.736 
2 *110:7 *110:9 314.184 
3 *110:9 *110:11 4.5 
4 *110:11 io_out[5] 103.22 
*END

*D_NET *111 0.109913
*CONN
*P io_out[6] O
*I *419:io_out[6] O *D user_proj_example
*CAP
1 io_out[6] 0.0114978
2 *419:io_out[6] 0.00208641
3 *111:11 0.0114978
4 *111:9 0.0413724
5 *111:7 0.0434588
*RES